examples/data/enwl/lv-network-models/network_11/Feeder_1/Loads.dss
New Load.LOAD1 Phases=1 Bus1=88.1 kV=0.23 kW=1 PF=0.95
New Load.LOAD2 Phases=1 Bus1=120.2 kV=0.23 kW=1 PF=0.95
New Load.LOAD3 Phases=1 Bus1=121.3 kV=0.23 kW=1 PF=0.95
New Load.LOAD4 Phases=1 Bus1=122.1 kV=0.23 kW=1 PF=0.95
New Load.LOAD5 Phases=1 Bus1=123.2 kV=0.23 kW=1 PF=0.95
New Load.LOAD6 Phases=1 Bus1=124.3 kV=0.23 kW=1 PF=0.95
New Load.LOAD7 Phases=1 Bus1=125.1 kV=0.23 kW=1 PF=0.95
New Load.LOAD8 Phases=1 Bus1=126.2 kV=0.23 kW=1 PF=0.95
New Load.LOAD9 Phases=1 Bus1=127.3 kV=0.23 kW=1 PF=0.95
New Load.LOAD10 Phases=1 Bus1=128.1 kV=0.23 kW=1 PF=0.95
New Load.LOAD11 Phases=1 Bus1=138.2 kV=0.23 kW=1 PF=0.95
New Load.LOAD12 Phases=1 Bus1=139.2 kV=0.23 kW=1 PF=0.95
New Load.LOAD13 Phases=1 Bus1=140.2 kV=0.23 kW=1 PF=0.95
New Load.LOAD14 Phases=1 Bus1=141.2 kV=0.23 kW=1 PF=0.95
New Load.LOAD15 Phases=1 Bus1=142.2 kV=0.23 kW=1 PF=0.95
New Load.LOAD16 Phases=1 Bus1=199.2 kV=0.23 kW=1 PF=0.95
New Load.LOAD17 Phases=1 Bus1=200.3 kV=0.23 kW=1 PF=0.95
New Load.LOAD18 Phases=1 Bus1=201.1 kV=0.23 kW=1 PF=0.95
New Load.LOAD19 Phases=1 Bus1=202.2 kV=0.23 kW=1 PF=0.95
New Load.LOAD20 Phases=1 Bus1=203.3 kV=0.23 kW=1 PF=0.95
New Load.LOAD21 Phases=1 Bus1=204.1 kV=0.23 kW=1 PF=0.95
New Load.LOAD22 Phases=1 Bus1=205.2 kV=0.23 kW=1 PF=0.95
New Load.LOAD23 Phases=1 Bus1=206.3 kV=0.23 kW=1 PF=0.95
New Load.LOAD24 Phases=1 Bus1=207.1 kV=0.23 kW=1 PF=0.95
New Load.LOAD25 Phases=1 Bus1=208.2 kV=0.23 kW=1 PF=0.95
New Load.LOAD26 Phases=1 Bus1=209.3 kV=0.23 kW=1 PF=0.95
New Load.LOAD27 Phases=1 Bus1=210.1 kV=0.23 kW=1 PF=0.95
New Load.LOAD28 Phases=1 Bus1=211.2 kV=0.23 kW=1 PF=0.95
New Load.LOAD29 Phases=1 Bus1=212.3 kV=0.23 kW=1 PF=0.95
New Load.LOAD30 Phases=1 Bus1=213.1 kV=0.23 kW=1 PF=0.95
New Load.LOAD31 Phases=1 Bus1=214.2 kV=0.23 kW=1 PF=0.95